test/data/c2/scenario_02/case.raw
0,100.0,33,0,0,50.0
GRID OPTIMIZATION COMPETITION CHALLENGE 2
INPUT DATA FILES ARE RAW JSON CON
1,'            ',100.0,3,1,1,1,1.06,0.0,1.1,0.9,1.1,0.9
2,'            ',100.0,2,1,1,1,1.045,-4.9826,1.1,0.9,1.1,0.9
3,'            ',100.0,2,1,1,1,1.01,-12.7251,1.1,0.9,1.1,0.9
4,'            ',100.0,1,1,1,1,1.01767,-10.3129,1.1,0.9,1.1,0.9
5,'            ',100.0,1,1,1,1,1.01951,-8.7739,1.1,0.9,1.1,0.9
6,'            ',100.0,2,1,1,1,1.07,-14.221,1.1,0.9,1.1,0.9
7,'            ',100.0,1,1,1,1,1.06152,-13.3596,1.1,0.9,1.1,0.9
8,'            ',100.0,2,1,1,1,1.09,-13.3596,1.1,0.9,1.1,0.9
9,'            ',100.0,1,1,1,1,1.05593,-14.9385,1.1,0.9,1.1,0.9
10,'            ',100.0,1,1,1,1,1.05098,-15.0973,1.1,0.9,1.1,0.9
11,'            ',100.0,1,1,1,1,1.05691,-14.7906,1.1,0.9,1.1,0.9
12,'            ',100.0,1,2,1,1,1.05519,-15.0756,1.1,0.9,1.1,0.9
13,'            ',100.0,1,1,1,1,1.05038,-15.1563,1.1,0.9,1.1,0.9
14,'            ',100.0,1,1,1,1,1.03553,-16.0336,1.1,0.9,1.1,0.9
0 / END OF BUS DATA BEGIN LOAD DATA
1,'1',0,1,1,93.05130213,9.52761968,0.0,0.0,0.0,0.0,1,1,0
2,'1',1,1,1,16.8107012,11.00486003,0.0,0.0,0.0,0.0,1,1,0
3,'1',1,1,1,80.66188947,22.24943677,0.0,0.0,0.0,0.0,1,1,0
4,'1',1,1,1,51.23531309,-3.56688794,0.0,0.0,0.0,0.0,1,1,0
5,'1',1,1,1,7.1251291,2.06001615,0.0,0.0,0.0,0.0,1,1,0
6,'1',1,1,1,10.98278334,5.44991708,0.0,0.0,0.0,0.0,1,1,0
9,'1',1,1,1,24.68380574,15.82498583,0.0,0.0,0.0,0.0,1,1,0
10,'1',1,1,1,8.82165655,5.55372651,0.0,0.0,0.0,0.0,1,1,0
11,'1',1,1,1,3.84630233,1.45320338,0.0,0.0,0.0,0.0,1,1,0
12,'1',1,1,1,5.64341563,1.74133085,0.0,0.0,0.0,0.0,1,1,0
13,'1',1,1,1,11.66567328,5.28130269,0.0,0.0,0.0,0.0,1,1,0
14,'1',1,1,1,13.05130213,4.52761968,0.0,0.0,0.0,0.0,1,1,0
0 / END OF LOAD DATA BEGIN FIXED SHUNT DATA
9,'1',1,0.0,19.0
10,'1',0,0.0,19.0
0 / END OF FIXED SHUNT DATA BEGIN GENERATOR DATA
1,'1',232.393,-16.549,76.06114563,-132.20215728,1.06,0,100.0,0.0,1.0,0.0,0.0,1.0,1,100.0,245.44508658,37.96496068,1,1.0,0,1.0,0,1.0,0,1.0,0,1.0
2,'1',40.0,43.557,36.16681776,-76.98124849,1.045,0,100.0,0.0,1.0,0.0,0.0,1.0,1,100.0,157.50255639,48.14826636,1,1.0,0,1.0,0,1.0,0,1.0,0,1.0
3,'1',0.0,25.075,48.51225182,-0.87933042,1.01,0,100.0,0.0,1.0,0.0,0.0,1.0,1,100.0,82.49986204,5.80178827,1,1.0,0,1.0,0,1.0,0,1.0,0,1.0
6,'1',0.0,12.731,19.47136874,-19.11302463,1.07,0,100.0,0.0,1.0,0.0,0.0,1.0,1,100.0,110.50327558,11.46109347,1,1.0,0,1.0,0,1.0,0,1.0,0,1.0
8,'1',0.0,17.623,19.23728257,-8.03365315,1.09,0,100.0,0.0,1.0,0.0,0.0,1.0,1,100.0,80.14478049,0.31982867,1,1.0,0,1.0,0,1.0,0,1.0,0,1.0
10,'1',0.0,0.0,19.47136874,-19.11302463,1.05098,0,100.0,0.0,1.0,0.0,0.0,1.0,0,100.0,110.50327558,11.46109347,1,1.0,0,1.0,0,1.0,0,1.0,0,1.0
0 / END OF GENERATOR DATA BEGIN BRANCH DATA
1,2,'1',0.01938,0.05917,0.0528,141.6,188.4,188.4,0.0,0.0,0.0,0.0,1,1,0.0,1,1.0,0,1.0,0,1.0,0,1.0
1,5,'1',0.05403,0.22304,0.0492,51.6,68.4,68.4,0.0,0.0,0.0,0.0,1,1,0.0,1,1.0,0,1.0,0,1.0,0,1.0
2,3,'1',0.04699,0.19797,0.0438,210.0,280.8,280.8,0.0,0.0,0.0,0.0,1,1,0.0,1,1.0,0,1.0,0,1.0,0,1.0
2,4,'1',0.05811,0.17632,0.034,109.2,145.2,145.2,0.0,0.0,0.0,0.0,1,1,0.0,1,1.0,0,1.0,0,1.0,0,1.0
2,5,'1',0.05695,0.17388,0.0346,73.2,98.4,98.4,0.0,0.0,0.0,0.0,1,1,0.0,1,1.0,0,1.0,0,1.0,0,1.0
3,4,'1',0.06701,0.17103,0.0128,122.4,162.0,162.0,0.0,0.0,0.0,0.0,1,1,0.0,1,1.0,0,1.0,0,1.0,0,1.0
4,5,'1',0.01335,0.04211,0.0,458.4,610.8,610.8,0.0,0.0,0.0,0.0,1,1,0.0,1,1.0,0,1.0,0,1.0,0,1.0
6,11,'1',0.09498,0.1989,0.0,175.2,232.8,232.8,0.0,0.0,0.0,0.0,1,1,0.0,1,1.0,0,1.0,0,1.0,0,1.0
6,12,'1',0.12291,0.25581,0.0,51.6,68.4,68.4,0.0,0.0,0.0,0.0,1,1,0.0,1,1.0,0,1.0,0,1.0,0,1.0
6,13,'1',0.06615,0.13027,0.0,176.4,235.2,235.2,0.0,0.0,0.0,0.0,1,1,0.0,1,1.0,0,1.0,0,1.0,0,1.0
7,8,'1',0.0,0.17615,0.0,56.4,75.6,75.6,0.0,0.0,0.0,0.0,1,1,0.0,1,1.0,0,1.0,0,1.0,0,1.0
7,9,'1',0.0,0.11001,0.0,124.8,166.8,166.8,0.0,0.0,0.0,0.0,1,1,0.0,1,1.0,0,1.0,0,1.0,0,1.0
9,10,'1',0.03181,0.0845,0.0,255.6,340.8,340.8,0.0,0.0,0.0,0.0,1,1,0.0,1,1.0,0,1.0,0,1.0,0,1.0
9,14,'1',0.12711,0.27038,0.0,48.0,63.6,63.6,0.0,0.0,0.0,0.0,1,1,0.0,1,1.0,0,1.0,0,1.0,0,1.0
10,11,'1',0.08205,0.19207,0.0,156.0,208.8,208.8,0.0,0.0,0.0,0.0,1,1,0.0,1,1.0,0,1.0,0,1.0,0,1.0
10,14,'1',0.17093,0.34802,0.0,85.2,114.0,114.0,0.0,0.0,0.0,0.0,0,1,0.0,1,1.0,0,1.0,0,1.0,0,1.0
12,13,'1',0.22092,0.19988,0.0,38.4,50.4,50.4,0.0,0.0,0.0,0.0,1,1,0.0,1,1.0,0,1.0,0,1.0,0,1.0
13,14,'1',0.17093,0.34802,0.0,85.2,114.0,114.0,0.0,0.0,0.0,0.0,1,1,0.0,1,1.0,0,1.0,0,1.0,0,1.0
0 / END OF BRANCH DATA BEGIN TRANSFORMER DATA
4,7,0,'1',1,1,1,0.0,0.0,2,'0',1,1,1.0,0,1.0,0,1.0,0,1.0,'0'
0.0,0.20912,100.0
0.978,60.0,0.0,41.0,55.0,55.0,0,0,0.0,0.0,1.5,0.51,1,0,0.0,0.0,0.0
1.0,100.0
4,9,0,'1',1,1,1,0.0,0.0,2,'0',1,1,1.0,0,1.0,0,1.0,0,1.0,'0'
0.0,0.55618,100.0
0.969,60.0,0.0,24.0,31.0,31.0,0,0,0.0,0.0,1.5,0.51,1,0,0.0,0.0,0.0
1.0,100.0
5,6,0,'1',1,1,1,0.0,0.0,2,'0',1,1,1.0,0,1.0,0,1.0,0,1.0,'0'
0.0,0.25202,100.0
0.932,60.0,0.0,116.0,154.0,154.0,0,0,0.0,0.0,1.5,0.51,1,0,0.0,0.0,0.0
1.0,100.0
7,9,0,'2',1,1,1,0.0,0.0,2,'0',0,1,1.0,0,1.0,0,1.0,0,1.0,'0'
0.0,0.25202,100.0
0.932,60.0,0.0,116.0,154.0,154.0,0,0,0.0,0.0,1.5,0.51,1,0,0.0,0.0,0.0
1.0,100.0
0 / END OF TRANSFORMER DATA BEGIN AREA DATA
1,0,0.0,10.0,'            '
2,0,0.0,10.0,'            '
0 / END OF AREA DATA BEGIN TWO-TERMINAL DC DATA
0 / END OF TWO-TERMINAL DC DATA BEGIN VSC DC LINE DATA
0 / END OF VSC DC LINE DATA BEGIN IMPEDANCE CORRECTION DATA
0 / END OF IMPEDANCE CORRECTION DATA BEGIN MULTI-TERMINAL DC DATA
0 / END OF MULTI-TERMINAL DC DATA BEGIN MULTI-SECTION LINE DATA
0 / END OF MULTI-SECTION LINE DATA BEGIN ZONE DATA
0 / END OF ZONE DATA BEGIN INTER-AREA TRANSFER DATA
0 / END OF INTER-AREA TRANSFER DATA BEGIN OWNER DATA
0 / END OF OWNER DATA BEGIN FACTS DEVICE DATA
0 / END OF FACTS DEVICE DATA BEGIN SWITCHED SHUNT DATA
11,2,0,1,2.0,0.5,0,100.0,'0',0.0,1,40.0
13,2,0,0,2.0,0.5,0,100.0,'0',0.0,1,50.0
0 / END OF SWITCHED SHUNT DATA BEGIN GNE DATA
0 / END OF GNE DATA BEGIN INDUCTION MACHINE DATA
0 / END OF INDUCTION MACHINE DATA
Q
